SIM
 OpenBabel12232517213D

 29 29  0  0  1  0  0  0  0  0999 V2000
    1.8374    1.0064    1.9912 C   0  0  0  0  0  0  0  0  0  0  0  0
    2.7995    0.6062    0.8645 C   0  0  2  0  0  0  0  0  0  0  0  0
    2.1375    0.7279   -0.5242 C   0  0  0  0  0  0  0  0  0  0  0  0
    0.6798   -0.3488   -0.7635 S   0  0  0  0  0  0  0  0  0  0  0  0
    3.3465   -0.7991    1.1095 C   0  0  0  0  0  0  0  0  0  0  0  0
    2.5446   -1.7155    1.1751 O   0  0  0  0  0  0  0  0  0  0  0  0
    4.6888   -1.0532    1.2612 N   0  0  0  0  0  0  0  0  0  0  0  0
    5.7143   -0.0339    1.1200 C   0  0  0  0  0  0  0  0  0  0  0  0
    7.0005   -0.8306    0.9442 C   0  0  0  0  0  0  0  0  0  0  0  0
    6.7533   -2.0027    1.8536 C   0  0  0  0  0  0  0  0  0  0  0  0
    5.2931   -2.3639    1.5179 C   0  0  1  0  0  0  0  0  0  0  0  0
    4.6550   -3.1602    2.6554 C   0  0  0  0  0  0  0  0  0  0  0  0
    3.5333   -3.8844    2.4517 O   0  0  0  0  0  0  0  0  0  0  0  0
    5.2098   -3.2518    3.7403 O   0  0  0  0  0  0  0  0  0  0  0  0
    2.3669    0.9771    2.9676 H   0  0  0  0  0  0  0  0  0  0  0  0
    0.9671    0.3187    2.0435 H   0  0  0  0  0  0  0  0  0  0  0  0
    1.4652    2.0403    1.8275 H   0  0  0  0  0  0  0  0  0  0  0  0
    3.6157    1.3536    0.8804 H   0  0  0  0  0  0  0  0  0  0  0  0
    1.8255    1.7790   -0.7066 H   0  0  0  0  0  0  0  0  0  0  0  0
    2.8773    0.4908   -1.3183 H   0  0  0  0  0  0  0  0  0  0  0  0
   -0.2199    0.6237   -0.2864 H   0  0  0  0  0  0  0  0  0  0  0  0
    5.7212    0.5942    2.0380 H   0  0  0  0  0  0  0  0  0  0  0  0
    5.5888    0.5921    0.2100 H   0  0  0  0  0  0  0  0  0  0  0  0
    7.9291   -0.2540    1.1412 H   0  0  0  0  0  0  0  0  0  0  0  0
    7.0356   -1.2244   -0.0979 H   0  0  0  0  0  0  0  0  0  0  0  0
    6.8212   -1.6006    2.8914 H   0  0  0  0  0  0  0  0  0  0  0  0
    7.4696   -2.8454    1.7486 H   0  0  0  0  0  0  0  0  0  0  0  0
    5.2599   -2.9666    0.5830 H   0  0  0  0  0  0  0  0  0  0  0  0
    3.1283   -3.9793    1.5795 H   0  0  0  0  0  0  0  0  0  0  0  0
  1 15  1  0  0  0  0
  1 16  1  0  0  0  0
  1 17  1  0  0  0  0
  2  5  1  0  0  0  0
  2  3  1  0  0  0  0
  2  1  1  0  0  0  0
  2 18  1  1  0  0  0
  3  4  1  0  0  0  0
  3 19  1  0  0  0  0
  3 20  1  0  0  0  0
  4 21  1  0  0  0  0
  5  6  2  0  0  0  0
  5  7  1  0  0  0  0
  7  8  1  0  0  0  0
  7 11  1  0  0  0  0
  8  9  1  0  0  0  0
  8 22  1  0  0  0  0
  8 23  1  0  0  0  0
  9 10  1  0  0  0  0
  9 24  1  0  0  0  0
  9 25  1  0  0  0  0
 10 11  1  0  0  0  0
 10 26  1  0  0  0  0
 10 27  1  0  0  0  0
 11 12  1  0  0  0  0
 11 28  1  6  0  0  0
 12 13  1  0  0  0  0
 12 14  2  0  0  0  0
 13 29  1  0  0  0  0
M  END
>  <Energy>
251.227

$$$$
